src/test/resources/pst_special/error/20260620_1130_2D3_UX0.uct
##C 2007.05.01
##N
##ZAT
OGREUT21 Greuth       0 0        02.7734 9.72824 9.58201 -26.324 4.10853 7.38282 9.35708 -82.262                               F
OLIENN11 Lienz        0 0        5.11831 4.54566 0.32691 -2.6248 7.83823 2.88217 6.66925 -6.6305                               F
OLIENN21 Lienz        0 0        92.9181 0.17891 -49.008 7.68242 58.8673 -346.44 7.64404 9.17657                               F
OLIENN22 Lienz        0 0        9.92265 4.30399 0.62483 5.64984
OMALTA21 Malta Haupts 0 2 338.90 078.317 0.42464 08.6118 -12.400 816.401 -5637.2 755.540 -392.02                               F
OMALTA22 Malta Haupts 0 0        9.83005 7.70355 20.4291 -77.927 342.002 -6720.3 4.25591 -38.576                               F
OROSEG21 Rosegg       0 0        0.05691 4.47037 -14.895 -4.0928 1.21809 -85.755 2.83835 -0.5430                               F
##ZIT
IMFTV121 MONFALC.CE g 0 0        6.06662 6.70269 7.18417 6.05805
IPDRV121 PADRICIANO g 0 0        48.6715 -50.400 0.07542 1.26737
IPDRV122 PADRICIANO g 0 0        5.00497 5.48493 5.90188 0.43132
IRDPVA21 REDIPUGLIA g 0 0        26.3475 63.3735 7.40593 2.54811
##ZSI
LBERIC1  BERICEVO     0 0        9.99768 7.28544 3.50112 0.98742
LDIVAC11 DIVACA       0 0        8.29803 0.89489 9.07902 5.71818
LDIVAC12 LDIVAC12     0 0        8.65192 0.44775 3.89892 2.05089
LDIVAC51 LDIVAC51     0 0        361.998 9.49741 6.86477 0.03033
##ZXX
XLI_SO21 LNZO    211  1 0        5.17620 7.39062 2.74039 4.54474
XME_DI11              1 0        9.17398 8.72373 1.75109 6.32836
XPA_DI21              1 0        2.49841 8.84922 1.28654 5.14259
XRE_DI11              1 0        5.24829 8.41456 0.98515 3.63402
##L
IMFTV121 IPDRV121 1 0 9.8265 09.390 507.1414    900 XXXXXXXXXXXX
IMFTV121 IRDPVA21 1 0 9.9834 6.8716 34.06350    810 XXXXXXXXXXXX
IRDPVA21 IPDRV121 1 0 2.7416 11.113 619.1996    855 XXXXXXXXXXXX
LDIVAC11 LBERIC1  1 0 1.4271 52.531 466.6527   1920 XXXXXXXXXXXX
LDIVAC11 XME_DI11 1 1 7.1912 53.071 364.5674   1920
LDIVAC12 LDIVAC11 2 7 1.6793 3.7615 7.256076   9999 XXXXXXXXXXXX
LDIVAC12 XRE_DI11 1 1 7.6843 9.5645 55.02933   2450
OGREUT21 OLIENN21 1 0 5.6317 40.488 163.3680   2080 XXXXXXXXXXXX
OLIENN21 OLIENN22 1 7 9.9701 3.5031 7.367985   2154 XXXXXXXXXXXX
OLIENN21 OMALTA21 1 0 6.9655 22.727 239.4988   2400 XXXXXXXXXXXX
OLIENN21 OMALTA22 2 0 5.6645 68.428 707.2792   2400 XXXXXXXXXXXX
OLIENN21 OROSEG21 1 0 0.7378 48.192 921.6694   2000 XXXXXXXXXXXX
OLIENN22 XLI_SO21 1 1 9.2872 19.855 342.0254    704
OMALTA21 OMALTA22 1 2 7.4763 0.1395 9.697287   2000 XXXXXXXXXXXX
XPA_DI21 IPDRV122 1 1 2.8816 3.8298 26.26586    960
##T
IPDRV121 IPDRV122 1 0 692.6 044.4 031.8 3.6553 24.220 -7.78034 5.9692    928 XXXXXXXXXXXX
LDIVAC11 LDIVAC12 1 0 369.1 121.6 1200. 3.8279 20.419 -0.16789 4.3758   1732 XXXXXXXXXXXX
LDIVAC51 LDIVAC11 1 0 139.3 969.7 825.8 4.8095 4.4859 -626.924 06.333   1506 XXXXXXXXXXXX
OLIENN21 OLIENN11 1 0 426.2 892.4 004.7 1.5185 54.691 -67.2612 8.3877   1556 XXXXXXXXXXXX
OLIENN21 OLIENN11 2 0 850.4 508.7 463.4 7.2315 19.422 -10.8428 6.5283   1556 XXXXXXXXXXXX
OLIENN21 OLIENN22 2 0 435.7 017.6 734.5 8.6334 14.397 6.521964 9.8769    746 XXXXXXXXXXXX
##R
IPDRV121 IPDRV122 1                    8.150 57.24 16  -6 2.031 SYMM
LDIVAC51 LDIVAC11 1 0.080 12  -1
OLIENN21 OLIENN11 1                    5.397 43.46 13   0       ASYM
OLIENN21 OLIENN11 2                    3.317 66.72 13   0       ASYM
OLIENN21 OLIENN22 2                    6.221 16.27 32   0       SYMM
